This file contains any messages produced by compilers while
running configure, to aid debugging if configure makes a mistake.

It was created by Specfem 2D configure 7.0.0, which was
generated by GNU Autoconf 2.69.  Invocation command line was

  $ ./configure CC=icc FC=ifort MPIFC=mpif90 --with-mpi --with-scotch-dir=./src/meshfem2D/scotch

## --------- ##
## Platform. ##
## --------- ##

hostname = wenyongp-P5820X
uname -m = x86_64
uname -r = 5.3.0-53-generic
uname -s = Linux
uname -v = #47-Ubuntu SMP Thu May 7 12:18:16 UTC 2020

/usr/bin/uname -p = x86_64
/bin/uname -X     = unknown

/bin/arch              = x86_64
/usr/bin/arch -k       = unknown
/usr/convex/getsysinfo = unknown
/usr/bin/hostinfo      = unknown
/bin/machine           = unknown
/usr/bin/oslevel       = unknown
/bin/universe          = unknown

PATH: /home/wenyongp/Programs/Openmpi-4.0.3/bin
PATH: /home/wenyongp/intel/compilers_and_libraries_2020.1.217/linux/bin/intel64
PATH: /home/wenyongp/intel/compilers_and_libraries_2020.1.217/linux/bin
PATH: /home/wenyongp/intel/compilers_and_libraries_2020.1.217/linux/mpi/intel64/libfabric/bin
PATH: /home/wenyongp/intel/compilers_and_libraries_2020.1.217/linux/mpi/intel64/bin
PATH: /home/wenyongp/intel/compilers_and_libraries_2020.1.217/linux/mpirt/bin/ia32_lin
PATH: /home/wenyongp/intel/compilers_and_libraries_2020.1.217/linux/bin/intel64
PATH: /home/wenyongp/intel/compilers_and_libraries_2020.1.217/linux/bin
PATH: /home/wenyongp/intel/debugger_2020/gdb/intel64/bin
PATH: /home/wenyongp/.local/bin
PATH: /usr/local/sbin
PATH: /usr/local/bin
PATH: /usr/sbin
PATH: /usr/bin
PATH: /sbin
PATH: /bin
PATH: /usr/games
PATH: /usr/local/games
PATH: /snap/bin
PATH: /home/wenyongp/Programs/SU/bin


## ----------- ##
## Core tests. ##
## ----------- ##

configure:2664: checking for Fortran compiler version
configure:2673: ifort --version >&5
ifort (IFORT) 19.1.1.217 20200306
Copyright (C) 1985-2020 Intel Corporation.  All rights reserved.

configure:2684: $? = 0
configure:2673: ifort -v >&5
ifort version 19.1.1.217
configure:2684: $? = 0
configure:2673: ifort -V >&5
Intel(R) Fortran Intel(R) 64 Compiler for applications running on Intel(R) 64, Version 19.1.1.217 Build 20200306
Copyright (C) 1985-2020 Intel Corporation.  All rights reserved.

configure:2684: $? = 0
configure:2673: ifort -qversion >&5
ifort: command line warning #10006: ignoring unknown option '-qversion'
ifort: command line error: no files specified; for help type "ifort -help"
configure:2684: $? = 1
configure:2699: checking whether the Fortran compiler works
configure:2721: ifort    conftest.f  >&5
configure:2725: $? = 0
configure:2773: result: yes
configure:2776: checking for Fortran compiler default output file name
configure:2778: result: a.out
configure:2784: checking for suffix of executables
configure:2791: ifort -o conftest    conftest.f  >&5
configure:2795: $? = 0
configure:2817: result: 
configure:2833: checking whether we are cross compiling
configure:2841: ifort -o conftest    conftest.f  >&5
configure:2845: $? = 0
configure:2852: ./conftest
configure:2856: $? = 0
configure:2844: result: no
configure:2849: checking for suffix of object files
configure:2865: ifort -c   conftest.f >&5
configure:2869: $? = 0
configure:2890: result: o
configure:2898: checking whether we are using the GNU Fortran compiler
configure:2911: ifort -c   conftest.F >&5
conftest.F(3): error #5082: Syntax error, found END-OF-STATEMENT when expecting one of: ( : % [ . = =>
       choke me
---------------^
conftest.F(3): error #6218: This statement is positioned incorrectly and/or has syntax errors.
       choke me
-------^
compilation aborted for conftest.F (code 1)
configure:2911: $? = 1
configure: failed program was:
|       program main
| #ifndef __GNUC__
|        choke me
| #endif
| 
|       end
configure:2920: result: no
configure:2926: checking whether ifort accepts -g
configure:2937: ifort -c -g  conftest.f >&5
configure:2937: $? = 0
configure:2945: result: yes
configure:2983: running /bin/bash ./flags.guess
configure:3022: checking build system type
configure:3036: result: x86_64-unknown-linux-gnu
configure:3056: checking host system type
configure:3069: result: x86_64-unknown-linux-gnu
configure:3094: checking how to get verbose linking output from ifort
configure:3104: ifort -c -g  conftest.f >&5
configure:3104: $? = 0
configure:3122: ifort -o conftest -g -v conftest.f
ifort version 19.1.1.217
/home/wenyongp/intel/compilers_and_libraries_2020.1.217/linux/bin/intel64/fortcom    -D__INTEL_COMPILER=1910 -D__INTEL_COMPILER_UPDATE=0 -D__unix__ -D__unix -D__linux__ -D__linux -D__gnu_linux__ -Dunix -Dlinux -D__ELF__ -D__x86_64 -D__x86_64__ -D__amd64 -D__amd64__ -D__INTEL_COMPILER_BUILD_DATE=20200306 -D__INTEL_OFFLOAD -D__MMX__ -D__SSE__ -D__SSE_MATH__ -D__SSE2__ -D__SSE2_MATH__ -D__pentium4 -D__pentium4__ -D__tune_pentium4__ -I. -I/home/wenyongp/intel/compilers_and_libraries_2020.1.217/linux/ipp/include -I/home/wenyongp/intel/compilers_and_libraries_2020.1.217/linux/mkl/include -I/home/wenyongp/intel/compilers_and_libraries_2020.1.217/linux/pstl/include -I/home/wenyongp/intel/compilers_and_libraries_2020.1.217/linux/pstl/stdlib -I/home/wenyongp/intel/compilers_and_libraries_2020.1.217/linux/tbb/include -I/home/wenyongp/intel/compilers_and_libraries_2020.1.217/linux/tbb/include -I/home/wenyongp/intel/compilers_and_libraries_2020.1.217/linux/daal/include -I/home/wenyongp/intel/compilers_and_libraries_2020.1.217/linux/ipp/include -I/home/wenyongp/intel/compilers_and_libraries_2020.1.217/linux/mkl/include -I/home/wenyongp/intel/compilers_and_libraries_2020.1.217/linux/pstl/include -I/home/wenyongp/intel/compilers_and_libraries_2020.1.217/linux/pstl/stdlib -I/home/wenyongp/intel/compilers_and_libraries_2020.1.217/linux/tbb/include -I/home/wenyongp/intel/compilers_and_libraries_2020.1.217/linux/tbb/include -I/home/wenyongp/intel/compilers_and_libraries_2020.1.217/linux/daal/include -I/home/wenyongp/intel/compilers_and_libraries_2020.1.217/linux/compiler/include/intel64 -I/home/wenyongp/intel/compilers_and_libraries_2020.1.217/linux/compiler/include/icc -I/home/wenyongp/intel/compilers_and_libraries_2020.1.217/linux/compiler/include -I/usr/local/include -I/usr/lib/gcc/x86_64-linux-gnu/9/include -I/usr/lib/gcc/x86_64-linux-gnu/9/include-fixed -I/usr/include/ -I/usr/include -I/usr/include/x86_64-linux-gnu "-fp_modbits honor_f32_conversion" "-fp_modbits honor_f64_conversion" -O0 -g2 "-reentrancy threaded" -simd -offload_host -mGLOB_em64t=TRUE -mP1OPT_version=19.1-intel64 -mGLOB_diag_file=/tmp/ifortOwTOVj.diag -mGLOB_long_size_64 -mGLOB_routine_pointer_size_64 -mGLOB_source_language=GLOB_SOURCE_LANGUAGE_F90 -mP2OPT_static_promotion -mGLOB_pack_sort_init_list -mP1OPT_print_version=FALSE -mCG_use_gas_got_workaround=F -mP2OPT_align_option_used=TRUE -mGLOB_gcc_version=921 "-mGLOB_options_string=-o conftest -g -v" -mGLOB_cxx_limited_range=FALSE -mCG_extend_parms=FALSE -mGLOB_compiler_bin_directory=/home/wenyongp/intel/compilers_and_libraries_2020.1.217/linux/bin/intel64 -mP3OPT_emit_line_numbers -mP2OPT_suppress_unreferenced_locals=FALSE -mGLOB_debug_target=GLOB_DEBUG_TARGET_ALL -mDEBUG_info_level=2 -mDEBUG_use_indirect_strings=TRUE -mIPOPT_ninl_debug_info=TRUE -mDEBUG_emit_dwarf_inline_info=TRUE -mDEBUG_debug_ranges=TRUE -mGLOB_debug_format=GLOB_DEBUG_FORMAT_DWARF40 -mGLOB_as_output_backup_file_name=/tmp/ifortsvLmRjas_.s -mGLOB_dashboard_use_source_name -mGLOB_uarch_tuning=0x0 -mGLOB_product_id_code=0x22006d91 -mGLOB_maintain_errno -mGLOB_noinline_intrinsics -mGLOB_use_base_pointer=1 -mCG_bnl_movbe=T -mP3OPT_use_mspp_call_convention -mP2OPT_subs_out_of_bound=FALSE -mP2OPT_disam_type_based_disam=2 -mGLOB_ansi_alias -mIPOPT_ninl_limit=0 -mIPOPT_ninl_user_level=0 -mPGOPTI_value_profile_use=T -mGLOB_opt_report_use_source_name -mP2OPT_hpo_omp_simd_only=FALSE -mP2OPT_gen_linux_const_pooling=FALSE -mGLOB_offload_mode=1 -mP2OPT_offload_unique_var_string=ifort1214154860E6bful -mGLOB_opt_level=0 -mIPOPT_args_in_regs=0 -mP2OPT_disam_assume_nonstd_intent_in=FALSE -mGLOB_imf_mapping_library=/home/wenyongp/intel/compilers_and_libraries_2020.1.217/linux/bin/intel64/libiml_attr.so -mIPOPT_single_file_compile_and_link=TRUE -mP2OPT_hlo_embed_loopinfo -mPGOPTI_gen_threadsafe_level=0 -mIPOPT_lto_object_enabled -mIPOPT_lto_object_value=1 -mIPOPT_obj_output_file_name=/tmp/ifortOwTOVj.o -mIPOPT_whole_archive_fixup_file_name=/tmp/ifortwarchizs6in -mGLOB_linker_version=2.33 -mGLOB_linker=ld -mGLOB_driver_tempfile_name=/tmp/iforttempfileAk7oll -mP3OPT_asm_target=P3OPT_ASM_TARGET_GAS -mGLOB_async_unwind_tables=TRUE -mGLOB_obj_output_file=/tmp/ifortOwTOVj.o -mGLOB_source_dialect=GLOB_SOURCE_DIALECT_FORTRAN -mP1OPT_source_file_name=conftest.f -mP1OPT_full_source_file_name=/home/wenyongp/Programs/SeisElastic2D/specfem2d/conftest.f -mP2OPT_symtab_type_copy=true conftest.f
#include "..." search starts here:
#include <...> search starts here:
 .
 /home/wenyongp/intel/compilers_and_libraries_2020.1.217/linux/ipp/include
 /home/wenyongp/intel/compilers_and_libraries_2020.1.217/linux/mkl/include
 /home/wenyongp/intel/compilers_and_libraries_2020.1.217/linux/pstl/include
 /home/wenyongp/intel/compilers_and_libraries_2020.1.217/linux/pstl/stdlib
 /home/wenyongp/intel/compilers_and_libraries_2020.1.217/linux/tbb/include
 /home/wenyongp/intel/compilers_and_libraries_2020.1.217/linux/tbb/include
 /home/wenyongp/intel/compilers_and_libraries_2020.1.217/linux/daal/include
 /home/wenyongp/intel/compilers_and_libraries_2020.1.217/linux/ipp/include
 /home/wenyongp/intel/compilers_and_libraries_2020.1.217/linux/mkl/include
 /home/wenyongp/intel/compilers_and_libraries_2020.1.217/linux/pstl/include
 /home/wenyongp/intel/compilers_and_libraries_2020.1.217/linux/pstl/stdlib
 /home/wenyongp/intel/compilers_and_libraries_2020.1.217/linux/tbb/include
 /home/wenyongp/intel/compilers_and_libraries_2020.1.217/linux/tbb/include
 /home/wenyongp/intel/compilers_and_libraries_2020.1.217/linux/daal/include
 /home/wenyongp/intel/compilers_and_libraries_2020.1.217/linux/compiler/include/intel64
 /home/wenyongp/intel/compilers_and_libraries_2020.1.217/linux/compiler/include/icc
 /home/wenyongp/intel/compilers_and_libraries_2020.1.217/linux/compiler/include
 /usr/local/include
 /usr/lib/gcc/x86_64-linux-gnu/9/include
 /usr/lib/gcc/x86_64-linux-gnu/9/include-fixed
 /usr/include/
 /usr/include
 /usr/include/x86_64-linux-gnu
End of search list.
ld    /usr/lib/gcc/x86_64-linux-gnu/9/../../../x86_64-linux-gnu/Scrt1.o /usr/lib/gcc/x86_64-linux-gnu/9/../../../x86_64-linux-gnu/crti.o /usr/lib/gcc/x86_64-linux-gnu/9/crtbeginS.o --eh-frame-hdr --build-id -dynamic-linker /lib64/ld-linux-x86-64.so.2 -m elf_x86_64 -plugin /home/wenyongp/intel/compilers_and_libraries_2020.1.217/linux/bin/intel64/../../lib/LLVMgold.so -o conftest /home/wenyongp/intel/compilers_and_libraries_2020.1.217/linux/compiler/lib/intel64_lin/for_main.o -L/home/wenyongp/intel/compilers_and_libraries_2020.1.217/linux/mpi/intel64/libfabric/lib -L/home/wenyongp/intel/compilers_and_libraries_2020.1.217/linux/ipp/lib/intel64 -L/home/wenyongp/intel/compilers_and_libraries_2020.1.217/linux/compiler/lib/intel64_lin -L/home/wenyongp/intel/compilers_and_libraries_2020.1.217/linux/mkl/lib/intel64_lin -L/home/wenyongp/intel/compilers_and_libraries_2020.1.217/linux/tbb/lib/intel64/gcc4.8 -L/home/wenyongp/intel/compilers_and_libraries_2020.1.217/linux/tbb/lib/intel64/gcc4.8 -L/home/wenyongp/intel/compilers_and_libraries_2020.1.217/linux/daal/lib/intel64_lin -L/home/wenyongp/intel/compilers_and_libraries_2020.1.217/linux/ipp/lib/ia32 -L/home/wenyongp/intel/compilers_and_libraries_2020.1.217/linux/compiler/lib/ia32_lin -L/home/wenyongp/intel/compilers_and_libraries_2020.1.217/linux/mkl/lib/ia32_lin -L/home/wenyongp/intel/compilers_and_libraries_2020.1.217/linux/tbb/lib/ia32/gcc4.8 -L/home/wenyongp/intel/compilers_and_libraries_2020.1.217/linux/tbb/lib/ia32/gcc4.8 -L/home/wenyongp/intel/compilers_and_libraries_2020.1.217/linux/daal/lib/ia32_lin -L/home/wenyongp/intel/compilers_and_libraries_2020.1.217/linux/daal/../tbb/lib/ia32_lin/gcc4.4 -L/home/wenyongp/intel/compilers_and_libraries_2020.1.217/linux/daal/../tbb/lib/ia32_lin/gcc4.8 -L/home/wenyongp/intel/compilers_and_libraries_2020.1.217/linux/compiler/lib/intel64_lin -L/home/wenyongp/intel/compilers_and_libraries_2020.1.217/linux/mpi/intel64/libfabric/lib/../lib/ -L/usr/lib/gcc/x86_64-linux-gnu/9/ -L/usr/lib/gcc/x86_64-linux-gnu/9/../../../x86_64-linux-gnu/ -L/usr/lib/gcc/x86_64-linux-gnu/9/../../../../lib64 -L/usr/lib/gcc/x86_64-linux-gnu/9/../../../../lib/ -L/lib/x86_64-linux-gnu/ -L/lib/../lib64 -L/lib/../lib/ -L/usr/lib/x86_64-linux-gnu/ -L/usr/lib/../lib64 -L/usr/lib/../lib/ -L/home/wenyongp/intel/compilers_and_libraries_2020.1.217/linux/mpi/intel64/libfabric/lib/ -L/home/wenyongp/intel/compilers_and_libraries_2020.1.217/linux/ipp/lib/intel64/ -L/home/wenyongp/intel/compilers_and_libraries_2020.1.217/linux/compiler/lib/intel64_lin/ -L/home/wenyongp/intel/compilers_and_libraries_2020.1.217/linux/mkl/lib/intel64_lin/ -L/home/wenyongp/intel/compilers_and_libraries_2020.1.217/linux/tbb/lib/intel64/gcc4.8/ -L/home/wenyongp/intel/compilers_and_libraries_2020.1.217/linux/daal/lib/intel64_lin/ -L/home/wenyongp/intel/compilers_and_libraries_2020.1.217/linux/ipp/lib/ia32/ -L/home/wenyongp/intel/compilers_and_libraries_2020.1.217/linux/compiler/lib/ia32_lin/ -L/home/wenyongp/intel/compilers_and_libraries_2020.1.217/linux/mkl/lib/ia32_lin/ -L/home/wenyongp/intel/compilers_and_libraries_2020.1.217/linux/tbb/lib/ia32/gcc4.8/ -L/home/wenyongp/intel/compilers_and_libraries_2020.1.217/linux/daal/lib/ia32_lin/ -L/home/wenyongp/intel/compilers_and_libraries_2020.1.217/linux/daal/../tbb/lib/ia32_lin/gcc4.8/ -L/usr/lib/gcc/x86_64-linux-gnu/9/../../../ -L/lib64 -L/lib/ -L/usr/lib64 -L/usr/lib -L/usr/lib/i386-linux-gnu /tmp/ifortOwTOVj.o -Bdynamic -Bstatic -lifport -lifcoremt -limf -lsvml -Bdynamic -lm -Bstatic -lipgo -lirc -Bdynamic -lpthread -Bstatic -lsvml -Bdynamic -lc -lgcc -lgcc_s -Bstatic -lirc_s -Bdynamic -ldl -lc /usr/lib/gcc/x86_64-linux-gnu/9/crtendS.o /usr/lib/gcc/x86_64-linux-gnu/9/../../../x86_64-linux-gnu/crtn.o
configure:3205: result: -v
configure:3207: checking for Fortran libraries of ifort
configure:3230: ifort -o conftest -g -v conftest.f
ifort version 19.1.1.217
/home/wenyongp/intel/compilers_and_libraries_2020.1.217/linux/bin/intel64/fortcom    -D__INTEL_COMPILER=1910 -D__INTEL_COMPILER_UPDATE=0 -D__unix__ -D__unix -D__linux__ -D__linux -D__gnu_linux__ -Dunix -Dlinux -D__ELF__ -D__x86_64 -D__x86_64__ -D__amd64 -D__amd64__ -D__INTEL_COMPILER_BUILD_DATE=20200306 -D__INTEL_OFFLOAD -D__MMX__ -D__SSE__ -D__SSE_MATH__ -D__SSE2__ -D__SSE2_MATH__ -D__pentium4 -D__pentium4__ -D__tune_pentium4__ -I. -I/home/wenyongp/intel/compilers_and_libraries_2020.1.217/linux/ipp/include -I/home/wenyongp/intel/compilers_and_libraries_2020.1.217/linux/mkl/include -I/home/wenyongp/intel/compilers_and_libraries_2020.1.217/linux/pstl/include -I/home/wenyongp/intel/compilers_and_libraries_2020.1.217/linux/pstl/stdlib -I/home/wenyongp/intel/compilers_and_libraries_2020.1.217/linux/tbb/include -I/home/wenyongp/intel/compilers_and_libraries_2020.1.217/linux/tbb/include -I/home/wenyongp/intel/compilers_and_libraries_2020.1.217/linux/daal/include -I/home/wenyongp/intel/compilers_and_libraries_2020.1.217/linux/ipp/include -I/home/wenyongp/intel/compilers_and_libraries_2020.1.217/linux/mkl/include -I/home/wenyongp/intel/compilers_and_libraries_2020.1.217/linux/pstl/include -I/home/wenyongp/intel/compilers_and_libraries_2020.1.217/linux/pstl/stdlib -I/home/wenyongp/intel/compilers_and_libraries_2020.1.217/linux/tbb/include -I/home/wenyongp/intel/compilers_and_libraries_2020.1.217/linux/tbb/include -I/home/wenyongp/intel/compilers_and_libraries_2020.1.217/linux/daal/include -I/home/wenyongp/intel/compilers_and_libraries_2020.1.217/linux/compiler/include/intel64 -I/home/wenyongp/intel/compilers_and_libraries_2020.1.217/linux/compiler/include/icc -I/home/wenyongp/intel/compilers_and_libraries_2020.1.217/linux/compiler/include -I/usr/local/include -I/usr/lib/gcc/x86_64-linux-gnu/9/include -I/usr/lib/gcc/x86_64-linux-gnu/9/include-fixed -I/usr/include/ -I/usr/include -I/usr/include/x86_64-linux-gnu "-fp_modbits honor_f32_conversion" "-fp_modbits honor_f64_conversion" -O0 -g2 "-reentrancy threaded" -simd -offload_host -mGLOB_em64t=TRUE -mP1OPT_version=19.1-intel64 -mGLOB_diag_file=/tmp/ifortw6ANH9.diag -mGLOB_long_size_64 -mGLOB_routine_pointer_size_64 -mGLOB_source_language=GLOB_SOURCE_LANGUAGE_F90 -mP2OPT_static_promotion -mGLOB_pack_sort_init_list -mP1OPT_print_version=FALSE -mCG_use_gas_got_workaround=F -mP2OPT_align_option_used=TRUE -mGLOB_gcc_version=921 "-mGLOB_options_string=-o conftest -g -v" -mGLOB_cxx_limited_range=FALSE -mCG_extend_parms=FALSE -mGLOB_compiler_bin_directory=/home/wenyongp/intel/compilers_and_libraries_2020.1.217/linux/bin/intel64 -mP3OPT_emit_line_numbers -mP2OPT_suppress_unreferenced_locals=FALSE -mGLOB_debug_target=GLOB_DEBUG_TARGET_ALL -mDEBUG_info_level=2 -mDEBUG_use_indirect_strings=TRUE -mIPOPT_ninl_debug_info=TRUE -mDEBUG_emit_dwarf_inline_info=TRUE -mDEBUG_debug_ranges=TRUE -mGLOB_debug_format=GLOB_DEBUG_FORMAT_DWARF40 -mGLOB_as_output_backup_file_name=/tmp/ifortLN5Nxcas_.s -mGLOB_dashboard_use_source_name -mGLOB_uarch_tuning=0x0 -mGLOB_product_id_code=0x22006d91 -mGLOB_maintain_errno -mGLOB_noinline_intrinsics -mGLOB_use_base_pointer=1 -mCG_bnl_movbe=T -mP3OPT_use_mspp_call_convention -mP2OPT_subs_out_of_bound=FALSE -mP2OPT_disam_type_based_disam=2 -mGLOB_ansi_alias -mIPOPT_ninl_limit=0 -mIPOPT_ninl_user_level=0 -mPGOPTI_value_profile_use=T -mGLOB_opt_report_use_source_name -mP2OPT_hpo_omp_simd_only=FALSE -mP2OPT_gen_linux_const_pooling=FALSE -mGLOB_offload_mode=1 -mP2OPT_offload_unique_var_string=ifort1306292529bRSjo8 -mGLOB_opt_level=0 -mIPOPT_args_in_regs=0 -mP2OPT_disam_assume_nonstd_intent_in=FALSE -mGLOB_imf_mapping_library=/home/wenyongp/intel/compilers_and_libraries_2020.1.217/linux/bin/intel64/libiml_attr.so -mIPOPT_single_file_compile_and_link=TRUE -mP2OPT_hlo_embed_loopinfo -mPGOPTI_gen_threadsafe_level=0 -mIPOPT_lto_object_enabled -mIPOPT_lto_object_value=1 -mIPOPT_obj_output_file_name=/tmp/ifortw6ANH9.o -mIPOPT_whole_archive_fixup_file_name=/tmp/ifortwarchECXY47 -mGLOB_linker_version=2.33 -mGLOB_linker=ld -mGLOB_driver_tempfile_name=/tmp/iforttempfile1u7md9 -mP3OPT_asm_target=P3OPT_ASM_TARGET_GAS -mGLOB_async_unwind_tables=TRUE -mGLOB_obj_output_file=/tmp/ifortw6ANH9.o -mGLOB_source_dialect=GLOB_SOURCE_DIALECT_FORTRAN -mP1OPT_source_file_name=conftest.f -mP1OPT_full_source_file_name=/home/wenyongp/Programs/SeisElastic2D/specfem2d/conftest.f -mP2OPT_symtab_type_copy=true conftest.f
#include "..." search starts here:
#include <...> search starts here:
 .
 /home/wenyongp/intel/compilers_and_libraries_2020.1.217/linux/ipp/include
 /home/wenyongp/intel/compilers_and_libraries_2020.1.217/linux/mkl/include
 /home/wenyongp/intel/compilers_and_libraries_2020.1.217/linux/pstl/include
 /home/wenyongp/intel/compilers_and_libraries_2020.1.217/linux/pstl/stdlib
 /home/wenyongp/intel/compilers_and_libraries_2020.1.217/linux/tbb/include
 /home/wenyongp/intel/compilers_and_libraries_2020.1.217/linux/tbb/include
 /home/wenyongp/intel/compilers_and_libraries_2020.1.217/linux/daal/include
 /home/wenyongp/intel/compilers_and_libraries_2020.1.217/linux/ipp/include
 /home/wenyongp/intel/compilers_and_libraries_2020.1.217/linux/mkl/include
 /home/wenyongp/intel/compilers_and_libraries_2020.1.217/linux/pstl/include
 /home/wenyongp/intel/compilers_and_libraries_2020.1.217/linux/pstl/stdlib
 /home/wenyongp/intel/compilers_and_libraries_2020.1.217/linux/tbb/include
 /home/wenyongp/intel/compilers_and_libraries_2020.1.217/linux/tbb/include
 /home/wenyongp/intel/compilers_and_libraries_2020.1.217/linux/daal/include
 /home/wenyongp/intel/compilers_and_libraries_2020.1.217/linux/compiler/include/intel64
 /home/wenyongp/intel/compilers_and_libraries_2020.1.217/linux/compiler/include/icc
 /home/wenyongp/intel/compilers_and_libraries_2020.1.217/linux/compiler/include
 /usr/local/include
 /usr/lib/gcc/x86_64-linux-gnu/9/include
 /usr/lib/gcc/x86_64-linux-gnu/9/include-fixed
 /usr/include/
 /usr/include
 /usr/include/x86_64-linux-gnu
End of search list.
ld    /usr/lib/gcc/x86_64-linux-gnu/9/../../../x86_64-linux-gnu/Scrt1.o /usr/lib/gcc/x86_64-linux-gnu/9/../../../x86_64-linux-gnu/crti.o /usr/lib/gcc/x86_64-linux-gnu/9/crtbeginS.o --eh-frame-hdr --build-id -dynamic-linker /lib64/ld-linux-x86-64.so.2 -m elf_x86_64 -plugin /home/wenyongp/intel/compilers_and_libraries_2020.1.217/linux/bin/intel64/../../lib/LLVMgold.so -o conftest /home/wenyongp/intel/compilers_and_libraries_2020.1.217/linux/compiler/lib/intel64_lin/for_main.o -L/home/wenyongp/intel/compilers_and_libraries_2020.1.217/linux/mpi/intel64/libfabric/lib -L/home/wenyongp/intel/compilers_and_libraries_2020.1.217/linux/ipp/lib/intel64 -L/home/wenyongp/intel/compilers_and_libraries_2020.1.217/linux/compiler/lib/intel64_lin -L/home/wenyongp/intel/compilers_and_libraries_2020.1.217/linux/mkl/lib/intel64_lin -L/home/wenyongp/intel/compilers_and_libraries_2020.1.217/linux/tbb/lib/intel64/gcc4.8 -L/home/wenyongp/intel/compilers_and_libraries_2020.1.217/linux/tbb/lib/intel64/gcc4.8 -L/home/wenyongp/intel/compilers_and_libraries_2020.1.217/linux/daal/lib/intel64_lin -L/home/wenyongp/intel/compilers_and_libraries_2020.1.217/linux/ipp/lib/ia32 -L/home/wenyongp/intel/compilers_and_libraries_2020.1.217/linux/compiler/lib/ia32_lin -L/home/wenyongp/intel/compilers_and_libraries_2020.1.217/linux/mkl/lib/ia32_lin -L/home/wenyongp/intel/compilers_and_libraries_2020.1.217/linux/tbb/lib/ia32/gcc4.8 -L/home/wenyongp/intel/compilers_and_libraries_2020.1.217/linux/tbb/lib/ia32/gcc4.8 -L/home/wenyongp/intel/compilers_and_libraries_2020.1.217/linux/daal/lib/ia32_lin -L/home/wenyongp/intel/compilers_and_libraries_2020.1.217/linux/daal/../tbb/lib/ia32_lin/gcc4.4 -L/home/wenyongp/intel/compilers_and_libraries_2020.1.217/linux/daal/../tbb/lib/ia32_lin/gcc4.8 -L/home/wenyongp/intel/compilers_and_libraries_2020.1.217/linux/compiler/lib/intel64_lin -L/home/wenyongp/intel/compilers_and_libraries_2020.1.217/linux/mpi/intel64/libfabric/lib/../lib/ -L/usr/lib/gcc/x86_64-linux-gnu/9/ -L/usr/lib/gcc/x86_64-linux-gnu/9/../../../x86_64-linux-gnu/ -L/usr/lib/gcc/x86_64-linux-gnu/9/../../../../lib64 -L/usr/lib/gcc/x86_64-linux-gnu/9/../../../../lib/ -L/lib/x86_64-linux-gnu/ -L/lib/../lib64 -L/lib/../lib/ -L/usr/lib/x86_64-linux-gnu/ -L/usr/lib/../lib64 -L/usr/lib/../lib/ -L/home/wenyongp/intel/compilers_and_libraries_2020.1.217/linux/mpi/intel64/libfabric/lib/ -L/home/wenyongp/intel/compilers_and_libraries_2020.1.217/linux/ipp/lib/intel64/ -L/home/wenyongp/intel/compilers_and_libraries_2020.1.217/linux/compiler/lib/intel64_lin/ -L/home/wenyongp/intel/compilers_and_libraries_2020.1.217/linux/mkl/lib/intel64_lin/ -L/home/wenyongp/intel/compilers_and_libraries_2020.1.217/linux/tbb/lib/intel64/gcc4.8/ -L/home/wenyongp/intel/compilers_and_libraries_2020.1.217/linux/daal/lib/intel64_lin/ -L/home/wenyongp/intel/compilers_and_libraries_2020.1.217/linux/ipp/lib/ia32/ -L/home/wenyongp/intel/compilers_and_libraries_2020.1.217/linux/compiler/lib/ia32_lin/ -L/home/wenyongp/intel/compilers_and_libraries_2020.1.217/linux/mkl/lib/ia32_lin/ -L/home/wenyongp/intel/compilers_and_libraries_2020.1.217/linux/tbb/lib/ia32/gcc4.8/ -L/home/wenyongp/intel/compilers_and_libraries_2020.1.217/linux/daal/lib/ia32_lin/ -L/home/wenyongp/intel/compilers_and_libraries_2020.1.217/linux/daal/../tbb/lib/ia32_lin/gcc4.8/ -L/usr/lib/gcc/x86_64-linux-gnu/9/../../../ -L/lib64 -L/lib/ -L/usr/lib64 -L/usr/lib -L/usr/lib/i386-linux-gnu /tmp/ifortw6ANH9.o -Bdynamic -Bstatic -lifport -lifcoremt -limf -lsvml -Bdynamic -lm -Bstatic -lipgo -lirc -Bdynamic -lpthread -Bstatic -lsvml -Bdynamic -lc -lgcc -lgcc_s -Bstatic -lirc_s -Bdynamic -ldl -lc /usr/lib/gcc/x86_64-linux-gnu/9/crtendS.o /usr/lib/gcc/x86_64-linux-gnu/9/../../../x86_64-linux-gnu/crtn.o
configure:3426: result:  -L/home/wenyongp/intel/compilers_and_libraries_2020.1.217/linux/mpi/intel64/libfabric/lib -L/home/wenyongp/intel/compilers_and_libraries_2020.1.217/linux/ipp/lib/intel64 -L/home/wenyongp/intel/compilers_and_libraries_2020.1.217/linux/compiler/lib/intel64_lin -L/home/wenyongp/intel/compilers_and_libraries_2020.1.217/linux/mkl/lib/intel64_lin -L/home/wenyongp/intel/compilers_and_libraries_2020.1.217/linux/tbb/lib/intel64/gcc4.8 -L/home/wenyongp/intel/compilers_and_libraries_2020.1.217/linux/daal/lib/intel64_lin -L/home/wenyongp/intel/compilers_and_libraries_2020.1.217/linux/ipp/lib/ia32 -L/home/wenyongp/intel/compilers_and_libraries_2020.1.217/linux/compiler/lib/ia32_lin -L/home/wenyongp/intel/compilers_and_libraries_2020.1.217/linux/mkl/lib/ia32_lin -L/home/wenyongp/intel/compilers_and_libraries_2020.1.217/linux/tbb/lib/ia32/gcc4.8 -L/home/wenyongp/intel/compilers_and_libraries_2020.1.217/linux/daal/lib/ia32_lin -L/home/wenyongp/intel/compilers_and_libraries_2020.1.217/linux/daal/../tbb/lib/ia32_lin/gcc4.4 -L/home/wenyongp/intel/compilers_and_libraries_2020.1.217/linux/daal/../tbb/lib/ia32_lin/gcc4.8 -L/home/wenyongp/intel/compilers_and_libraries_2020.1.217/linux/mpi/intel64/libfabric/lib/../lib/ -L/usr/lib/gcc/x86_64-linux-gnu/9/ -L/usr/lib/gcc/x86_64-linux-gnu/9/../../../x86_64-linux-gnu/ -L/usr/lib/gcc/x86_64-linux-gnu/9/../../../../lib64 -L/usr/lib/gcc/x86_64-linux-gnu/9/../../../../lib/ -L/lib/x86_64-linux-gnu/ -L/lib/../lib64 -L/lib/../lib/ -L/usr/lib/x86_64-linux-gnu/ -L/usr/lib/../lib64 -L/usr/lib/../lib/ -L/home/wenyongp/intel/compilers_and_libraries_2020.1.217/linux/mpi/intel64/libfabric/lib/ -L/home/wenyongp/intel/compilers_and_libraries_2020.1.217/linux/ipp/lib/intel64/ -L/home/wenyongp/intel/compilers_and_libraries_2020.1.217/linux/compiler/lib/intel64_lin/ -L/home/wenyongp/intel/compilers_and_libraries_2020.1.217/linux/mkl/lib/intel64_lin/ -L/home/wenyongp/intel/compilers_and_libraries_2020.1.217/linux/tbb/lib/intel64/gcc4.8/ -L/home/wenyongp/intel/compilers_and_libraries_2020.1.217/linux/daal/lib/intel64_lin/ -L/home/wenyongp/intel/compilers_and_libraries_2020.1.217/linux/ipp/lib/ia32/ -L/home/wenyongp/intel/compilers_and_libraries_2020.1.217/linux/compiler/lib/ia32_lin/ -L/home/wenyongp/intel/compilers_and_libraries_2020.1.217/linux/mkl/lib/ia32_lin/ -L/home/wenyongp/intel/compilers_and_libraries_2020.1.217/linux/tbb/lib/ia32/gcc4.8/ -L/home/wenyongp/intel/compilers_and_libraries_2020.1.217/linux/daal/lib/ia32_lin/ -L/home/wenyongp/intel/compilers_and_libraries_2020.1.217/linux/daal/../tbb/lib/ia32_lin/gcc4.8/ -L/usr/lib/gcc/x86_64-linux-gnu/9/../../../ -L/lib64 -L/lib/ -L/usr/lib64 -L/usr/lib -L/usr/lib/i386-linux-gnu -lifport -lifcoremt -limf -lsvml -lm -lipgo -lirc -lpthread -lirc_s -ldl
configure:3485: checking for gcc
configure:3512: result: icc
configure:3741: checking for C compiler version
configure:3750: icc --version >&5
icc (ICC) 19.1.1.217 20200306
Copyright (C) 1985-2020 Intel Corporation.  All rights reserved.

configure:3761: $? = 0
configure:3750: icc -v >&5
icc version 19.1.1.217 (gcc version 9.2.1 compatibility)
configure:3761: $? = 0
configure:3750: icc -V >&5
Intel(R) C Intel(R) 64 Compiler for applications running on Intel(R) 64, Version 19.1.1.217 Build 20200306
Copyright (C) 1985-2020 Intel Corporation.  All rights reserved.

configure:3761: $? = 0
configure:3750: icc -qversion >&5
icc: command line warning #10006: ignoring unknown option '-qversion'
icc: command line error: no files specified; for help type "icc -help"
configure:3761: $? = 1
configure:3765: checking whether we are using the GNU C compiler
configure:3792: icc -c   conftest.c >&5
configure:3792: $? = 0
configure:3801: result: yes
configure:3810: checking whether icc accepts -g
configure:3838: icc -c -g  conftest.c >&5
configure:3838: $? = 0
configure:3895: result: yes
configure:3912: checking for icc option to accept ISO C89
configure:3983: icc  -c -g -O2  conftest.c >&5
configure:3983: $? = 0
configure:3996: result: none needed
configure:4022: checking for dummy main to link with Fortran libraries
configure:4056: icc -o conftest -g -O2   conftest.c   -L/home/wenyongp/intel/compilers_and_libraries_2020.1.217/linux/mpi/intel64/libfabric/lib -L/home/wenyongp/intel/compilers_and_libraries_2020.1.217/linux/ipp/lib/intel64 -L/home/wenyongp/intel/compilers_and_libraries_2020.1.217/linux/compiler/lib/intel64_lin -L/home/wenyongp/intel/compilers_and_libraries_2020.1.217/linux/mkl/lib/intel64_lin -L/home/wenyongp/intel/compilers_and_libraries_2020.1.217/linux/tbb/lib/intel64/gcc4.8 -L/home/wenyongp/intel/compilers_and_libraries_2020.1.217/linux/daal/lib/intel64_lin -L/home/wenyongp/intel/compilers_and_libraries_2020.1.217/linux/ipp/lib/ia32 -L/home/wenyongp/intel/compilers_and_libraries_2020.1.217/linux/compiler/lib/ia32_lin -L/home/wenyongp/intel/compilers_and_libraries_2020.1.217/linux/mkl/lib/ia32_lin -L/home/wenyongp/intel/compilers_and_libraries_2020.1.217/linux/tbb/lib/ia32/gcc4.8 -L/home/wenyongp/intel/compilers_and_libraries_2020.1.217/linux/daal/lib/ia32_lin -L/home/wenyongp/intel/compilers_and_libraries_2020.1.217/linux/daal/../tbb/lib/ia32_lin/gcc4.4 -L/home/wenyongp/intel/compilers_and_libraries_2020.1.217/linux/daal/../tbb/lib/ia32_lin/gcc4.8 -L/home/wenyongp/intel/compilers_and_libraries_2020.1.217/linux/mpi/intel64/libfabric/lib/../lib/ -L/usr/lib/gcc/x86_64-linux-gnu/9/ -L/usr/lib/gcc/x86_64-linux-gnu/9/../../../x86_64-linux-gnu/ -L/usr/lib/gcc/x86_64-linux-gnu/9/../../../../lib64 -L/usr/lib/gcc/x86_64-linux-gnu/9/../../../../lib/ -L/lib/x86_64-linux-gnu/ -L/lib/../lib64 -L/lib/../lib/ -L/usr/lib/x86_64-linux-gnu/ -L/usr/lib/../lib64 -L/usr/lib/../lib/ -L/home/wenyongp/intel/compilers_and_libraries_2020.1.217/linux/mpi/intel64/libfabric/lib/ -L/home/wenyongp/intel/compilers_and_libraries_2020.1.217/linux/ipp/lib/intel64/ -L/home/wenyongp/intel/compilers_and_libraries_2020.1.217/linux/compiler/lib/intel64_lin/ -L/home/wenyongp/intel/compilers_and_libraries_2020.1.217/linux/mkl/lib/intel64_lin/ -L/home/wenyongp/intel/compilers_and_libraries_2020.1.217/linux/tbb/lib/intel64/gcc4.8/ -L/home/wenyongp/intel/compilers_and_libraries_2020.1.217/linux/daal/lib/intel64_lin/ -L/home/wenyongp/intel/compilers_and_libraries_2020.1.217/linux/ipp/lib/ia32/ -L/home/wenyongp/intel/compilers_and_libraries_2020.1.217/linux/compiler/lib/ia32_lin/ -L/home/wenyongp/intel/compilers_and_libraries_2020.1.217/linux/mkl/lib/ia32_lin/ -L/home/wenyongp/intel/compilers_and_libraries_2020.1.217/linux/tbb/lib/ia32/gcc4.8/ -L/home/wenyongp/intel/compilers_and_libraries_2020.1.217/linux/daal/lib/ia32_lin/ -L/home/wenyongp/intel/compilers_and_libraries_2020.1.217/linux/daal/../tbb/lib/ia32_lin/gcc4.8/ -L/usr/lib/gcc/x86_64-linux-gnu/9/../../../ -L/lib64 -L/lib/ -L/usr/lib64 -L/usr/lib -L/usr/lib/i386-linux-gnu -lifport -lifcoremt -limf -lsvml -lm -lipgo -lirc -lpthread -lirc_s -ldl >&5
configure:4056: $? = 0
configure:4101: result: none
configure:4134: checking for Fortran name-mangling scheme
configure:4147: ifort -c -g  conftest.f >&5
configure:4147: $? = 0
configure:4188: icc -o conftest -g -O2   conftest.c cfortran_test.o   -L/home/wenyongp/intel/compilers_and_libraries_2020.1.217/linux/mpi/intel64/libfabric/lib -L/home/wenyongp/intel/compilers_and_libraries_2020.1.217/linux/ipp/lib/intel64 -L/home/wenyongp/intel/compilers_and_libraries_2020.1.217/linux/compiler/lib/intel64_lin -L/home/wenyongp/intel/compilers_and_libraries_2020.1.217/linux/mkl/lib/intel64_lin -L/home/wenyongp/intel/compilers_and_libraries_2020.1.217/linux/tbb/lib/intel64/gcc4.8 -L/home/wenyongp/intel/compilers_and_libraries_2020.1.217/linux/daal/lib/intel64_lin -L/home/wenyongp/intel/compilers_and_libraries_2020.1.217/linux/ipp/lib/ia32 -L/home/wenyongp/intel/compilers_and_libraries_2020.1.217/linux/compiler/lib/ia32_lin -L/home/wenyongp/intel/compilers_and_libraries_2020.1.217/linux/mkl/lib/ia32_lin -L/home/wenyongp/intel/compilers_and_libraries_2020.1.217/linux/tbb/lib/ia32/gcc4.8 -L/home/wenyongp/intel/compilers_and_libraries_2020.1.217/linux/daal/lib/ia32_lin -L/home/wenyongp/intel/compilers_and_libraries_2020.1.217/linux/daal/../tbb/lib/ia32_lin/gcc4.4 -L/home/wenyongp/intel/compilers_and_libraries_2020.1.217/linux/daal/../tbb/lib/ia32_lin/gcc4.8 -L/home/wenyongp/intel/compilers_and_libraries_2020.1.217/linux/mpi/intel64/libfabric/lib/../lib/ -L/usr/lib/gcc/x86_64-linux-gnu/9/ -L/usr/lib/gcc/x86_64-linux-gnu/9/../../../x86_64-linux-gnu/ -L/usr/lib/gcc/x86_64-linux-gnu/9/../../../../lib64 -L/usr/lib/gcc/x86_64-linux-gnu/9/../../../../lib/ -L/lib/x86_64-linux-gnu/ -L/lib/../lib64 -L/lib/../lib/ -L/usr/lib/x86_64-linux-gnu/ -L/usr/lib/../lib64 -L/usr/lib/../lib/ -L/home/wenyongp/intel/compilers_and_libraries_2020.1.217/linux/mpi/intel64/libfabric/lib/ -L/home/wenyongp/intel/compilers_and_libraries_2020.1.217/linux/ipp/lib/intel64/ -L/home/wenyongp/intel/compilers_and_libraries_2020.1.217/linux/compiler/lib/intel64_lin/ -L/home/wenyongp/intel/compilers_and_libraries_2020.1.217/linux/mkl/lib/intel64_lin/ -L/home/wenyongp/intel/compilers_and_libraries_2020.1.217/linux/tbb/lib/intel64/gcc4.8/ -L/home/wenyongp/intel/compilers_and_libraries_2020.1.217/linux/daal/lib/intel64_lin/ -L/home/wenyongp/intel/compilers_and_libraries_2020.1.217/linux/ipp/lib/ia32/ -L/home/wenyongp/intel/compilers_and_libraries_2020.1.217/linux/compiler/lib/ia32_lin/ -L/home/wenyongp/intel/compilers_and_libraries_2020.1.217/linux/mkl/lib/ia32_lin/ -L/home/wenyongp/intel/compilers_and_libraries_2020.1.217/linux/tbb/lib/ia32/gcc4.8/ -L/home/wenyongp/intel/compilers_and_libraries_2020.1.217/linux/daal/lib/ia32_lin/ -L/home/wenyongp/intel/compilers_and_libraries_2020.1.217/linux/daal/../tbb/lib/ia32_lin/gcc4.8/ -L/usr/lib/gcc/x86_64-linux-gnu/9/../../../ -L/lib64 -L/lib/ -L/usr/lib64 -L/usr/lib -L/usr/lib/i386-linux-gnu -lifport -lifcoremt -limf -lsvml -lm -lipgo -lirc -lpthread -lirc_s -ldl >&5
ld: /tmp/icc8sRYkb.o: in function `main':
/home/wenyongp/Programs/SeisElastic2D/specfem2d/conftest.c:28: undefined reference to `foobar'
configure:4188: $? = 1
configure: failed program was:
| /* confdefs.h */
| #define PACKAGE_NAME "Specfem 2D"
| #define PACKAGE_TARNAME "Specfem2D"
| #define PACKAGE_VERSION "7.0.0"
| #define PACKAGE_STRING "Specfem 2D 7.0.0"
| #define PACKAGE_BUGREPORT "see the wiki"
| #define PACKAGE_URL ""
| /* end confdefs.h.  */
| 
| /* Override any GCC internal prototype to avoid an error.
|    Use char because int might match the return type of a GCC
|    builtin and then its argument prototype would still apply.  */
| #ifdef __cplusplus
| extern "C"
| #endif
| char foobar ();
| #ifdef FC_DUMMY_MAIN
| #ifndef FC_DUMMY_MAIN_EQ_F77
| #  ifdef __cplusplus
|      extern "C"
| #  endif
|    int FC_DUMMY_MAIN() { return 1; }
| #endif
| #endif
| int
| main ()
| {
| return foobar ();
|   ;
|   return 0;
| }
configure:4188: icc -o conftest -g -O2   conftest.c cfortran_test.o   -L/home/wenyongp/intel/compilers_and_libraries_2020.1.217/linux/mpi/intel64/libfabric/lib -L/home/wenyongp/intel/compilers_and_libraries_2020.1.217/linux/ipp/lib/intel64 -L/home/wenyongp/intel/compilers_and_libraries_2020.1.217/linux/compiler/lib/intel64_lin -L/home/wenyongp/intel/compilers_and_libraries_2020.1.217/linux/mkl/lib/intel64_lin -L/home/wenyongp/intel/compilers_and_libraries_2020.1.217/linux/tbb/lib/intel64/gcc4.8 -L/home/wenyongp/intel/compilers_and_libraries_2020.1.217/linux/daal/lib/intel64_lin -L/home/wenyongp/intel/compilers_and_libraries_2020.1.217/linux/ipp/lib/ia32 -L/home/wenyongp/intel/compilers_and_libraries_2020.1.217/linux/compiler/lib/ia32_lin -L/home/wenyongp/intel/compilers_and_libraries_2020.1.217/linux/mkl/lib/ia32_lin -L/home/wenyongp/intel/compilers_and_libraries_2020.1.217/linux/tbb/lib/ia32/gcc4.8 -L/home/wenyongp/intel/compilers_and_libraries_2020.1.217/linux/daal/lib/ia32_lin -L/home/wenyongp/intel/compilers_and_libraries_2020.1.217/linux/daal/../tbb/lib/ia32_lin/gcc4.4 -L/home/wenyongp/intel/compilers_and_libraries_2020.1.217/linux/daal/../tbb/lib/ia32_lin/gcc4.8 -L/home/wenyongp/intel/compilers_and_libraries_2020.1.217/linux/mpi/intel64/libfabric/lib/../lib/ -L/usr/lib/gcc/x86_64-linux-gnu/9/ -L/usr/lib/gcc/x86_64-linux-gnu/9/../../../x86_64-linux-gnu/ -L/usr/lib/gcc/x86_64-linux-gnu/9/../../../../lib64 -L/usr/lib/gcc/x86_64-linux-gnu/9/../../../../lib/ -L/lib/x86_64-linux-gnu/ -L/lib/../lib64 -L/lib/../lib/ -L/usr/lib/x86_64-linux-gnu/ -L/usr/lib/../lib64 -L/usr/lib/../lib/ -L/home/wenyongp/intel/compilers_and_libraries_2020.1.217/linux/mpi/intel64/libfabric/lib/ -L/home/wenyongp/intel/compilers_and_libraries_2020.1.217/linux/ipp/lib/intel64/ -L/home/wenyongp/intel/compilers_and_libraries_2020.1.217/linux/compiler/lib/intel64_lin/ -L/home/wenyongp/intel/compilers_and_libraries_2020.1.217/linux/mkl/lib/intel64_lin/ -L/home/wenyongp/intel/compilers_and_libraries_2020.1.217/linux/tbb/lib/intel64/gcc4.8/ -L/home/wenyongp/intel/compilers_and_libraries_2020.1.217/linux/daal/lib/intel64_lin/ -L/home/wenyongp/intel/compilers_and_libraries_2020.1.217/linux/ipp/lib/ia32/ -L/home/wenyongp/intel/compilers_and_libraries_2020.1.217/linux/compiler/lib/ia32_lin/ -L/home/wenyongp/intel/compilers_and_libraries_2020.1.217/linux/mkl/lib/ia32_lin/ -L/home/wenyongp/intel/compilers_and_libraries_2020.1.217/linux/tbb/lib/ia32/gcc4.8/ -L/home/wenyongp/intel/compilers_and_libraries_2020.1.217/linux/daal/lib/ia32_lin/ -L/home/wenyongp/intel/compilers_and_libraries_2020.1.217/linux/daal/../tbb/lib/ia32_lin/gcc4.8/ -L/usr/lib/gcc/x86_64-linux-gnu/9/../../../ -L/lib64 -L/lib/ -L/usr/lib64 -L/usr/lib -L/usr/lib/i386-linux-gnu -lifport -lifcoremt -limf -lsvml -lm -lipgo -lirc -lpthread -lirc_s -ldl >&5
configure:4188: $? = 0
configure:4246: icc -o conftest -g -O2   conftest.c cfortran_test.o   -L/home/wenyongp/intel/compilers_and_libraries_2020.1.217/linux/mpi/intel64/libfabric/lib -L/home/wenyongp/intel/compilers_and_libraries_2020.1.217/linux/ipp/lib/intel64 -L/home/wenyongp/intel/compilers_and_libraries_2020.1.217/linux/compiler/lib/intel64_lin -L/home/wenyongp/intel/compilers_and_libraries_2020.1.217/linux/mkl/lib/intel64_lin -L/home/wenyongp/intel/compilers_and_libraries_2020.1.217/linux/tbb/lib/intel64/gcc4.8 -L/home/wenyongp/intel/compilers_and_libraries_2020.1.217/linux/daal/lib/intel64_lin -L/home/wenyongp/intel/compilers_and_libraries_2020.1.217/linux/ipp/lib/ia32 -L/home/wenyongp/intel/compilers_and_libraries_2020.1.217/linux/compiler/lib/ia32_lin -L/home/wenyongp/intel/compilers_and_libraries_2020.1.217/linux/mkl/lib/ia32_lin -L/home/wenyongp/intel/compilers_and_libraries_2020.1.217/linux/tbb/lib/ia32/gcc4.8 -L/home/wenyongp/intel/compilers_and_libraries_2020.1.217/linux/daal/lib/ia32_lin -L/home/wenyongp/intel/compilers_and_libraries_2020.1.217/linux/daal/../tbb/lib/ia32_lin/gcc4.4 -L/home/wenyongp/intel/compilers_and_libraries_2020.1.217/linux/daal/../tbb/lib/ia32_lin/gcc4.8 -L/home/wenyongp/intel/compilers_and_libraries_2020.1.217/linux/mpi/intel64/libfabric/lib/../lib/ -L/usr/lib/gcc/x86_64-linux-gnu/9/ -L/usr/lib/gcc/x86_64-linux-gnu/9/../../../x86_64-linux-gnu/ -L/usr/lib/gcc/x86_64-linux-gnu/9/../../../../lib64 -L/usr/lib/gcc/x86_64-linux-gnu/9/../../../../lib/ -L/lib/x86_64-linux-gnu/ -L/lib/../lib64 -L/lib/../lib/ -L/usr/lib/x86_64-linux-gnu/ -L/usr/lib/../lib64 -L/usr/lib/../lib/ -L/home/wenyongp/intel/compilers_and_libraries_2020.1.217/linux/mpi/intel64/libfabric/lib/ -L/home/wenyongp/intel/compilers_and_libraries_2020.1.217/linux/ipp/lib/intel64/ -L/home/wenyongp/intel/compilers_and_libraries_2020.1.217/linux/compiler/lib/intel64_lin/ -L/home/wenyongp/intel/compilers_and_libraries_2020.1.217/linux/mkl/lib/intel64_lin/ -L/home/wenyongp/intel/compilers_and_libraries_2020.1.217/linux/tbb/lib/intel64/gcc4.8/ -L/home/wenyongp/intel/compilers_and_libraries_2020.1.217/linux/daal/lib/intel64_lin/ -L/home/wenyongp/intel/compilers_and_libraries_2020.1.217/linux/ipp/lib/ia32/ -L/home/wenyongp/intel/compilers_and_libraries_2020.1.217/linux/compiler/lib/ia32_lin/ -L/home/wenyongp/intel/compilers_and_libraries_2020.1.217/linux/mkl/lib/ia32_lin/ -L/home/wenyongp/intel/compilers_and_libraries_2020.1.217/linux/tbb/lib/ia32/gcc4.8/ -L/home/wenyongp/intel/compilers_and_libraries_2020.1.217/linux/daal/lib/ia32_lin/ -L/home/wenyongp/intel/compilers_and_libraries_2020.1.217/linux/daal/../tbb/lib/ia32_lin/gcc4.8/ -L/usr/lib/gcc/x86_64-linux-gnu/9/../../../ -L/lib64 -L/lib/ -L/usr/lib64 -L/usr/lib -L/usr/lib/i386-linux-gnu -lifport -lifcoremt -limf -lsvml -lm -lipgo -lirc -lpthread -lirc_s -ldl >&5
configure:4246: $? = 0
configure:4288: result: lower case, underscore, no extra underscore
configure:4363: checking for Fortran flag to compile .f90 files
configure:4383: ifort -c -g  conftest.f90 >&5
configure:4383: $? = 0
configure:4392: result: none
configure:4417: checking for Fortran flag needed to accept free-form source
configure:4436: ifort -c -g  conftest.f90 >&5
configure:4436: $? = 0
configure:4445: result: none
configure:4470: checking for Fortran flag to compile preprocessed .F files
configure:4495: ifort -c -g  conftest.F >&5
configure:4495: $? = 0
configure:4505: ifort -c -g  conftest.F >&5
conftest.F(4): #error: can't find include file: ac_nonexistent.h
configure:4505: $? = 1
configure: failed program was:
|       program main
| 
| #if 1
| #include <ac_nonexistent.h>
|       choke me
| #endif
|       end
configure:4518: result: none
configure:4539: checking how to define symbols for preprocessed Fortran
configure:4561: ifort -c -g -DFOOBAR -DZORK=42  conftest.F >&5
configure:4561: $? = 0
configure:4570: result: -D
configure:4590: checking for Fortran flag to compile preprocessed .F90 files
configure:4615: ifort -c -g  conftest.F90 >&5
configure:4615: $? = 0
configure:4625: ifort -c -g  conftest.F90 >&5
conftest.F90(4): #error: can't find include file: ac_nonexistent.h
configure:4625: $? = 1
configure: failed program was:
|       program main
| 
| #if 1
| #include <ac_nonexistent.h>
|       choke me
| #endif
|       end
configure:4638: result: none
configure:4707: checking for gcc
configure:4734: result: icc
configure:4963: checking for C compiler version
configure:4972: icc --version >&5
icc (ICC) 19.1.1.217 20200306
Copyright (C) 1985-2020 Intel Corporation.  All rights reserved.

configure:4983: $? = 0
configure:4972: icc -v >&5
icc version 19.1.1.217 (gcc version 9.2.1 compatibility)
configure:4983: $? = 0
configure:4972: icc -V >&5
Intel(R) C Intel(R) 64 Compiler for applications running on Intel(R) 64, Version 19.1.1.217 Build 20200306
Copyright (C) 1985-2020 Intel Corporation.  All rights reserved.

configure:4983: $? = 0
configure:4972: icc -qversion >&5
icc: command line warning #10006: ignoring unknown option '-qversion'
icc: command line error: no files specified; for help type "icc -help"
configure:4983: $? = 1
configure:4987: checking whether we are using the GNU C compiler
configure:5023: result: yes
configure:5032: checking whether icc accepts -g
configure:5117: result: yes
configure:5134: checking for icc option to accept ISO C89
configure:5218: result: none needed
configure:5249: checking how to run the C preprocessor
configure:5280: icc -E  conftest.c
configure:5280: $? = 0
configure:5294: icc -E  conftest.c
conftest.c(11): error #2379: cannot open source file "ac_nonexistent.h"
  #include <ac_nonexistent.h>
                             ^

configure:5294: $? = 2
configure: failed program was:
| /* confdefs.h */
| #define PACKAGE_NAME "Specfem 2D"
| #define PACKAGE_TARNAME "Specfem2D"
| #define PACKAGE_VERSION "7.0.0"
| #define PACKAGE_STRING "Specfem 2D 7.0.0"
| #define PACKAGE_BUGREPORT "see the wiki"
| #define PACKAGE_URL ""
| #define FC_FUNC(name,NAME) name ## _
| #define FC_FUNC_(name,NAME) name ## _
| /* end confdefs.h.  */
| #include <ac_nonexistent.h>
configure:5319: result: icc -E
configure:5339: icc -E  conftest.c
configure:5339: $? = 0
configure:5353: icc -E  conftest.c
conftest.c(11): error #2379: cannot open source file "ac_nonexistent.h"
  #include <ac_nonexistent.h>
                             ^

configure:5353: $? = 2
configure: failed program was:
| /* confdefs.h */
| #define PACKAGE_NAME "Specfem 2D"
| #define PACKAGE_TARNAME "Specfem2D"
| #define PACKAGE_VERSION "7.0.0"
| #define PACKAGE_STRING "Specfem 2D 7.0.0"
| #define PACKAGE_BUGREPORT "see the wiki"
| #define PACKAGE_URL ""
| #define FC_FUNC(name,NAME) name ## _
| #define FC_FUNC_(name,NAME) name ## _
| /* end confdefs.h.  */
| #include <ac_nonexistent.h>
configure:5382: checking for grep that handles long lines and -e
configure:5440: result: /usr/bin/grep
configure:5445: checking for egrep
configure:5507: result: /usr/bin/grep -E
configure:5512: checking for ANSI C header files
configure:5540: icc -c -g -O2  conftest.c >&5
configure:5540: $? = 0
configure:5613: icc -o conftest -g -O2   conftest.c  >&5
configure:5613: $? = 0
configure:5613: ./conftest
configure:5613: $? = 0
configure:5624: result: yes
configure:5637: checking for sys/types.h
configure:5637: icc -c -g -O2  conftest.c >&5
configure:5637: $? = 0
configure:5637: result: yes
configure:5637: checking for sys/stat.h
configure:5637: icc -c -g -O2  conftest.c >&5
configure:5637: $? = 0
configure:5637: result: yes
configure:5637: checking for stdlib.h
configure:5637: icc -c -g -O2  conftest.c >&5
configure:5637: $? = 0
configure:5637: result: yes
configure:5637: checking for string.h
configure:5637: icc -c -g -O2  conftest.c >&5
configure:5637: $? = 0
configure:5637: result: yes
configure:5637: checking for memory.h
configure:5637: icc -c -g -O2  conftest.c >&5
configure:5637: $? = 0
configure:5637: result: yes
configure:5637: checking for strings.h
configure:5637: icc -c -g -O2  conftest.c >&5
configure:5637: $? = 0
configure:5637: result: yes
configure:5637: checking for inttypes.h
configure:5637: icc -c -g -O2  conftest.c >&5
configure:5637: $? = 0
configure:5637: result: yes
configure:5637: checking for stdint.h
configure:5637: icc -c -g -O2  conftest.c >&5
configure:5637: $? = 0
configure:5637: result: yes
configure:5637: checking for unistd.h
configure:5637: icc -c -g -O2  conftest.c >&5
configure:5637: $? = 0
configure:5637: result: yes
configure:5649: checking emmintrin.h usability
configure:5649: icc -c -g -O2  conftest.c >&5
configure:5649: $? = 0
configure:5649: result: yes
configure:5649: checking emmintrin.h presence
configure:5649: icc -E  conftest.c
configure:5649: $? = 0
configure:5649: result: yes
configure:5649: checking for emmintrin.h
configure:5649: result: yes
configure:5657: checking xmmintrin.h usability
configure:5657: icc -c -g -O2  conftest.c >&5
configure:5657: $? = 0
configure:5657: result: yes
configure:5657: checking xmmintrin.h presence
configure:5657: icc -E  conftest.c
configure:5657: $? = 0
configure:5657: result: yes
configure:5657: checking for xmmintrin.h
configure:5657: result: yes
configure:5666: checking err.h usability
configure:5666: icc -c -g -O2  conftest.c >&5
configure:5666: $? = 0
configure:5666: result: yes
configure:5666: checking err.h presence
configure:5666: icc -E  conftest.c
configure:5666: $? = 0
configure:5666: result: yes
configure:5666: checking for err.h
configure:5666: result: yes
configure:5743: checking for scotchfarchinit  in -lscotch
configure:5755: ifort -o conftest -g  -L./src/meshfem2D/scotch/lib  conftest.F90 -lscotch -lscotcherr  >&5
configure:5755: $? = 0
configure:5764: result: yes
configure:5785: checking whether Scotch is usable
configure:5795: result: yes
configure:6445: checking Fortran 90 module extension
configure:6467: ifort -c -g  conftest.F90 >&5
configure:6467: $? = 0
configure:6483: result: mod
configure:6492: checking Fortran 90 module inclusion flag
configure:6514: ifort -c -g  conftest.F90 >&5
configure:6514: $? = 0
configure:6528: ifort -c -g -Mconftest.dir -Mconftest.dir  conftest.F90 >&5
ifort: command line warning #10006: ignoring unknown option '-Mconftest.dir'
ifort: command line warning #10006: ignoring unknown option '-Mconftest.dir'
conftest.F90(3): error #7002: Error in opening the compiled module file.  Check INCLUDE paths.   [CONFTEST_MODULE]
      use conftest_module
----------^
compilation aborted for conftest.F90 (code 1)
configure:6528: $? = 1
configure: failed program was:
| 
|       program main
|       use conftest_module
|       call conftest_routine
|       end program
configure:6528: ifort -c -g -Iconftest.dir -Iconftest.dir  conftest.F90 >&5
configure:6528: $? = 0
configure:6548: result: -I
configure:6563: checking Fortran 90 module output flag
configure:6591: ifort -c -g -Jsub  conftest.F90 >&5
ifort: command line warning #10006: ignoring unknown option '-Jsub'
configure:6591: $? = 0
configure:6600: ifort -c -g -Jsub  conftest.F90 >&5
ifort: command line warning #10006: ignoring unknown option '-Jsub'
conftest.F90(3): error #7002: Error in opening the compiled module file.  Check INCLUDE paths.   [CONFTEST_MODULE]
      use conftest_module
----------^
compilation aborted for conftest.F90 (code 1)
configure:6600: $? = 1
configure: failed program was:
| 
|       program main
|       use conftest_module
|       call conftest_routine
|       end program
configure:6591: ifort -c -g -J sub  conftest.F90 >&5
ifort: command line warning #10006: ignoring unknown option '-J'
ifort: warning #10145: no action performed for file 'sub'
configure:6591: $? = 0
configure:6600: ifort -c -g -J sub  conftest.F90 >&5
ifort: command line warning #10006: ignoring unknown option '-J'
ifort: error #10236: File not found:  'sub'
conftest.F90(3): error #7002: Error in opening the compiled module file.  Check INCLUDE paths.   [CONFTEST_MODULE]
      use conftest_module
----------^
compilation aborted for conftest.F90 (code 1)
configure:6600: $? = 1
configure: failed program was:
| 
|       program main
|       use conftest_module
|       call conftest_routine
|       end program
configure:6591: ifort -c -g -fmod=sub  conftest.F90 >&5
ifort: command line warning #10006: ignoring unknown option '-fmod=sub'
configure:6591: $? = 0
configure:6600: ifort -c -g -fmod=sub  conftest.F90 >&5
ifort: command line warning #10006: ignoring unknown option '-fmod=sub'
conftest.F90(3): error #7002: Error in opening the compiled module file.  Check INCLUDE paths.   [CONFTEST_MODULE]
      use conftest_module
----------^
compilation aborted for conftest.F90 (code 1)
configure:6600: $? = 1
configure: failed program was:
| 
|       program main
|       use conftest_module
|       call conftest_routine
|       end program
configure:6591: ifort -c -g -moddir=sub  conftest.F90 >&5
ifort: command line warning #10006: ignoring unknown option '-moddir=sub'
configure:6591: $? = 0
configure:6600: ifort -c -g -moddir=sub  conftest.F90 >&5
ifort: command line warning #10006: ignoring unknown option '-moddir=sub'
conftest.F90(3): error #7002: Error in opening the compiled module file.  Check INCLUDE paths.   [CONFTEST_MODULE]
      use conftest_module
----------^
compilation aborted for conftest.F90 (code 1)
configure:6600: $? = 1
configure: failed program was:
| 
|       program main
|       use conftest_module
|       call conftest_routine
|       end program
configure:6591: ifort -c -g +moddir=sub  conftest.F90 >&5
ifort: error #10236: File not found:  '+moddir=sub'
configure:6591: $? = 1
configure: failed program was:
| 
|       module conftest_module
|       contains
|       subroutine conftest_routine
|       write(*,'(a)') 'gotcha!'
|       end subroutine
|       end module
configure:6591: ifort -c -g -qmoddir=sub  conftest.F90 >&5
ifort: command line warning #10006: ignoring unknown option '-qmoddir=sub'
configure:6591: $? = 0
configure:6600: ifort -c -g -qmoddir=sub  conftest.F90 >&5
ifort: command line warning #10006: ignoring unknown option '-qmoddir=sub'
conftest.F90(3): error #7002: Error in opening the compiled module file.  Check INCLUDE paths.   [CONFTEST_MODULE]
      use conftest_module
----------^
compilation aborted for conftest.F90 (code 1)
configure:6600: $? = 1
configure: failed program was:
| 
|       program main
|       use conftest_module
|       call conftest_routine
|       end program
configure:6591: ifort -c -g -mod sub  conftest.F90 >&5
ifort: command line warning #10006: ignoring unknown option '-mod'
ifort: warning #10145: no action performed for file 'sub'
configure:6591: $? = 0
configure:6600: ifort -c -g -mod sub  conftest.F90 >&5
ifort: command line warning #10006: ignoring unknown option '-mod'
ifort: error #10236: File not found:  'sub'
conftest.F90(3): error #7002: Error in opening the compiled module file.  Check INCLUDE paths.   [CONFTEST_MODULE]
      use conftest_module
----------^
compilation aborted for conftest.F90 (code 1)
configure:6600: $? = 1
configure: failed program was:
| 
|       program main
|       use conftest_module
|       call conftest_routine
|       end program
configure:6591: ifort -c -g -module sub  conftest.F90 >&5
configure:6591: $? = 0
configure:6600: ifort -c -g -module sub  conftest.F90 >&5
configure:6600: $? = 0
configure:6621: result: -module 
configure:6707: checking for g++
configure:6723: found /usr/bin/g++
configure:6734: result: g++
configure:6761: checking for C++ compiler version
configure:6770: g++ --version >&5
g++ (Ubuntu 9.2.1-9ubuntu2) 9.2.1 20191008
Copyright (C) 2019 Free Software Foundation, Inc.
This is free software; see the source for copying conditions.  There is NO
warranty; not even for MERCHANTABILITY or FITNESS FOR A PARTICULAR PURPOSE.

configure:6781: $? = 0
configure:6770: g++ -v >&5
Using built-in specs.
COLLECT_GCC=g++
COLLECT_LTO_WRAPPER=/usr/lib/gcc/x86_64-linux-gnu/9/lto-wrapper
OFFLOAD_TARGET_NAMES=nvptx-none:hsa
OFFLOAD_TARGET_DEFAULT=1
Target: x86_64-linux-gnu
Configured with: ../src/configure -v --with-pkgversion='Ubuntu 9.2.1-9ubuntu2' --with-bugurl=file:///usr/share/doc/gcc-9/README.Bugs --enable-languages=c,ada,c++,go,brig,d,fortran,objc,obj-c++,gm2 --prefix=/usr --with-gcc-major-version-only --program-suffix=-9 --program-prefix=x86_64-linux-gnu- --enable-shared --enable-linker-build-id --libexecdir=/usr/lib --without-included-gettext --enable-threads=posix --libdir=/usr/lib --enable-nls --enable-bootstrap --enable-clocale=gnu --enable-libstdcxx-debug --enable-libstdcxx-time=yes --with-default-libstdcxx-abi=new --enable-gnu-unique-object --disable-vtable-verify --enable-plugin --enable-default-pie --with-system-zlib --with-target-system-zlib=auto --enable-multiarch --disable-werror --with-arch-32=i686 --with-abi=m64 --with-multilib-list=m32,m64,mx32 --enable-multilib --with-tune=generic --enable-offload-targets=nvptx-none,hsa --without-cuda-driver --enable-checking=release --build=x86_64-linux-gnu --host=x86_64-linux-gnu --target=x86_64-linux-gnu
Thread model: posix
gcc version 9.2.1 20191008 (Ubuntu 9.2.1-9ubuntu2) 
configure:6781: $? = 0
configure:6770: g++ -V >&5
g++: error: unrecognized command line option '-V'
g++: fatal error: no input files
compilation terminated.
configure:6781: $? = 1
configure:6770: g++ -qversion >&5
g++: error: unrecognized command line option '-qversion'; did you mean '--version'?
g++: fatal error: no input files
compilation terminated.
configure:6781: $? = 1
configure:6785: checking whether we are using the GNU C++ compiler
configure:6812: g++ -c   conftest.cpp >&5
configure:6812: $? = 0
configure:6821: result: yes
configure:6830: checking whether g++ accepts -g
configure:6858: g++ -c -g  conftest.cpp >&5
configure:6858: $? = 0
configure:6915: result: yes
configure:6944: checking how to run the C++ preprocessor
configure:6971: g++ -E  conftest.cpp
configure:6971: $? = 0
configure:6985: g++ -E  conftest.cpp
conftest.cpp:25:10: fatal error: ac_nonexistent.h: No such file or directory
   25 | #include <ac_nonexistent.h>
      |          ^~~~~~~~~~~~~~~~~~
compilation terminated.
configure:6985: $? = 1
configure: failed program was:
| /* confdefs.h */
| #define PACKAGE_NAME "Specfem 2D"
| #define PACKAGE_TARNAME "Specfem2D"
| #define PACKAGE_VERSION "7.0.0"
| #define PACKAGE_STRING "Specfem 2D 7.0.0"
| #define PACKAGE_BUGREPORT "see the wiki"
| #define PACKAGE_URL ""
| #define FC_FUNC(name,NAME) name ## _
| #define FC_FUNC_(name,NAME) name ## _
| #define STDC_HEADERS 1
| #define HAVE_SYS_TYPES_H 1
| #define HAVE_SYS_STAT_H 1
| #define HAVE_STDLIB_H 1
| #define HAVE_STRING_H 1
| #define HAVE_MEMORY_H 1
| #define HAVE_STRINGS_H 1
| #define HAVE_INTTYPES_H 1
| #define HAVE_STDINT_H 1
| #define HAVE_UNISTD_H 1
| #define HAVE_EMMINTRIN 1
| #define HAVE_XMMINTRIN 1
| #define HAVE_ERR 1
| #define HAVE_SCOTCH 1
| /* end confdefs.h.  */
| #include <ac_nonexistent.h>
configure:7010: result: g++ -E
configure:7030: g++ -E  conftest.cpp
configure:7030: $? = 0
configure:7044: g++ -E  conftest.cpp
conftest.cpp:25:10: fatal error: ac_nonexistent.h: No such file or directory
   25 | #include <ac_nonexistent.h>
      |          ^~~~~~~~~~~~~~~~~~
compilation terminated.
configure:7044: $? = 1
configure: failed program was:
| /* confdefs.h */
| #define PACKAGE_NAME "Specfem 2D"
| #define PACKAGE_TARNAME "Specfem2D"
| #define PACKAGE_VERSION "7.0.0"
| #define PACKAGE_STRING "Specfem 2D 7.0.0"
| #define PACKAGE_BUGREPORT "see the wiki"
| #define PACKAGE_URL ""
| #define FC_FUNC(name,NAME) name ## _
| #define FC_FUNC_(name,NAME) name ## _
| #define STDC_HEADERS 1
| #define HAVE_SYS_TYPES_H 1
| #define HAVE_SYS_STAT_H 1
| #define HAVE_STDLIB_H 1
| #define HAVE_STRING_H 1
| #define HAVE_MEMORY_H 1
| #define HAVE_STRINGS_H 1
| #define HAVE_INTTYPES_H 1
| #define HAVE_STDINT_H 1
| #define HAVE_UNISTD_H 1
| #define HAVE_EMMINTRIN 1
| #define HAVE_XMMINTRIN 1
| #define HAVE_ERR 1
| #define HAVE_SCOTCH 1
| /* end confdefs.h.  */
| #include <ac_nonexistent.h>
configure:7099: checking mpi.h usability
configure:7099: g++ -c -g -O2  -I/home/wenyongp/Programs/Openmpi-4.0.3/include  conftest.cpp >&5
configure:7099: $? = 0
configure:7099: result: yes
configure:7099: checking mpi.h presence
configure:7099: g++ -E  -I/home/wenyongp/Programs/Openmpi-4.0.3/include  conftest.cpp
configure:7099: $? = 0
configure:7099: result: yes
configure:7099: checking for mpi.h
configure:7099: result: yes
configure:7558: creating ./config.status

## ---------------------- ##
## Running config.status. ##
## ---------------------- ##

This file was extended by Specfem 2D config.status 7.0.0, which was
generated by GNU Autoconf 2.69.  Invocation command line was

  CONFIG_FILES    = 
  CONFIG_HEADERS  = 
  CONFIG_LINKS    = 
  CONFIG_COMMANDS = 
  $ ./config.status 

on wenyongp-P5820X

config.status:899: creating Makefile
config.status:899: creating setup/constants.h
config.status:899: creating setup/precision.h
config.status:899: creating setup/config.h
config.status:1069: setup/config.h is unchanged
config.status:1083: executing bin commands
config.status:1083: executing obj commands
config.status:1083: executing OUTPUT_FILES commands
configure:8738: result: 
configure:8743: result: 
configure:8745: result: ./configure has completed and set up a default configuration to build.
configure:8747: result: 
configure:8749: result: You may wish to modify the following files before running a simulation:
configure:8751: result:   DATA/Par_file           Set parameters affecting the simulation.
configure:8753: result:   DATA/SOURCE             Set the source parameters before running the solver.
configure:8755: result: 

## ---------------- ##
## Cache variables. ##
## ---------------- ##

ac_cv_build=x86_64-unknown-linux-gnu
ac_cv_c_compiler_gnu=yes
ac_cv_cxx_compiler_gnu=yes
ac_cv_env_CCC_set=
ac_cv_env_CCC_value=
ac_cv_env_CC_set=set
ac_cv_env_CC_value=icc
ac_cv_env_CFLAGS_set=
ac_cv_env_CFLAGS_value=
ac_cv_env_CPPFLAGS_set=
ac_cv_env_CPPFLAGS_value=
ac_cv_env_CPP_set=
ac_cv_env_CPP_value=
ac_cv_env_CUDA_FLAGS_set=
ac_cv_env_CUDA_FLAGS_value=
ac_cv_env_CUDA_INC_set=
ac_cv_env_CUDA_INC_value=
ac_cv_env_CUDA_LIB_set=
ac_cv_env_CUDA_LIB_value=
ac_cv_env_CXXCPP_set=
ac_cv_env_CXXCPP_value=
ac_cv_env_CXXFLAGS_set=
ac_cv_env_CXXFLAGS_value=
ac_cv_env_CXX_set=
ac_cv_env_CXX_value=
ac_cv_env_FCFLAGS_set=
ac_cv_env_FCFLAGS_value=
ac_cv_env_FC_set=set
ac_cv_env_FC_value=ifort
ac_cv_env_FLAGS_CHECK_set=
ac_cv_env_FLAGS_CHECK_value=
ac_cv_env_LDFLAGS_set=
ac_cv_env_LDFLAGS_value=
ac_cv_env_LIBS_set=
ac_cv_env_LIBS_value=
ac_cv_env_LOCAL_PATH_IS_ALSO_GLOBAL_set=
ac_cv_env_LOCAL_PATH_IS_ALSO_GLOBAL_value=
ac_cv_env_MPICC_set=
ac_cv_env_MPICC_value=
ac_cv_env_MPIFC_set=set
ac_cv_env_MPIFC_value=mpif90
ac_cv_env_MPILIBS_set=
ac_cv_env_MPILIBS_value=
ac_cv_env_MPI_INC_set=
ac_cv_env_MPI_INC_value=
ac_cv_env_NVCC_set=
ac_cv_env_NVCC_value=
ac_cv_env_SCOTCH_DIR_set=
ac_cv_env_SCOTCH_DIR_value=
ac_cv_env_SCOTCH_INCLUDEDIR_set=
ac_cv_env_SCOTCH_INCLUDEDIR_value=
ac_cv_env_SCOTCH_LIBDIR_set=
ac_cv_env_SCOTCH_LIBDIR_value=
ac_cv_env_USE_BUNDLED_SCOTCH_set=
ac_cv_env_USE_BUNDLED_SCOTCH_value=
ac_cv_env_YACC_set=
ac_cv_env_YACC_value=
ac_cv_env_YFLAGS_set=
ac_cv_env_YFLAGS_value=
ac_cv_env_build_alias_set=
ac_cv_env_build_alias_value=
ac_cv_env_host_alias_set=
ac_cv_env_host_alias_value=
ac_cv_env_target_alias_set=
ac_cv_env_target_alias_value=
ac_cv_fc_compiler_gnu=no
ac_cv_fc_dummy_main=none
ac_cv_fc_freeform=none
ac_cv_fc_libs=' -L/home/wenyongp/intel/compilers_and_libraries_2020.1.217/linux/mpi/intel64/libfabric/lib -L/home/wenyongp/intel/compilers_and_libraries_2020.1.217/linux/ipp/lib/intel64 -L/home/wenyongp/intel/compilers_and_libraries_2020.1.217/linux/compiler/lib/intel64_lin -L/home/wenyongp/intel/compilers_and_libraries_2020.1.217/linux/mkl/lib/intel64_lin -L/home/wenyongp/intel/compilers_and_libraries_2020.1.217/linux/tbb/lib/intel64/gcc4.8 -L/home/wenyongp/intel/compilers_and_libraries_2020.1.217/linux/daal/lib/intel64_lin -L/home/wenyongp/intel/compilers_and_libraries_2020.1.217/linux/ipp/lib/ia32 -L/home/wenyongp/intel/compilers_and_libraries_2020.1.217/linux/compiler/lib/ia32_lin -L/home/wenyongp/intel/compilers_and_libraries_2020.1.217/linux/mkl/lib/ia32_lin -L/home/wenyongp/intel/compilers_and_libraries_2020.1.217/linux/tbb/lib/ia32/gcc4.8 -L/home/wenyongp/intel/compilers_and_libraries_2020.1.217/linux/daal/lib/ia32_lin -L/home/wenyongp/intel/compilers_and_libraries_2020.1.217/linux/daal/../tbb/lib/ia32_lin/gcc4.4 -L/home/wenyongp/intel/compilers_and_libraries_2020.1.217/linux/daal/../tbb/lib/ia32_lin/gcc4.8 -L/home/wenyongp/intel/compilers_and_libraries_2020.1.217/linux/mpi/intel64/libfabric/lib/../lib/ -L/usr/lib/gcc/x86_64-linux-gnu/9/ -L/usr/lib/gcc/x86_64-linux-gnu/9/../../../x86_64-linux-gnu/ -L/usr/lib/gcc/x86_64-linux-gnu/9/../../../../lib64 -L/usr/lib/gcc/x86_64-linux-gnu/9/../../../../lib/ -L/lib/x86_64-linux-gnu/ -L/lib/../lib64 -L/lib/../lib/ -L/usr/lib/x86_64-linux-gnu/ -L/usr/lib/../lib64 -L/usr/lib/../lib/ -L/home/wenyongp/intel/compilers_and_libraries_2020.1.217/linux/mpi/intel64/libfabric/lib/ -L/home/wenyongp/intel/compilers_and_libraries_2020.1.217/linux/ipp/lib/intel64/ -L/home/wenyongp/intel/compilers_and_libraries_2020.1.217/linux/compiler/lib/intel64_lin/ -L/home/wenyongp/intel/compilers_and_libraries_2020.1.217/linux/mkl/lib/intel64_lin/ -L/home/wenyongp/intel/compilers_and_libraries_2020.1.217/linux/tbb/lib/intel64/gcc4.8/ -L/home/wenyongp/intel/compilers_and_libraries_2020.1.217/linux/daal/lib/intel64_lin/ -L/home/wenyongp/intel/compilers_and_libraries_2020.1.217/linux/ipp/lib/ia32/ -L/home/wenyongp/intel/compilers_and_libraries_2020.1.217/linux/compiler/lib/ia32_lin/ -L/home/wenyongp/intel/compilers_and_libraries_2020.1.217/linux/mkl/lib/ia32_lin/ -L/home/wenyongp/intel/compilers_and_libraries_2020.1.217/linux/tbb/lib/ia32/gcc4.8/ -L/home/wenyongp/intel/compilers_and_libraries_2020.1.217/linux/daal/lib/ia32_lin/ -L/home/wenyongp/intel/compilers_and_libraries_2020.1.217/linux/daal/../tbb/lib/ia32_lin/gcc4.8/ -L/usr/lib/gcc/x86_64-linux-gnu/9/../../../ -L/lib64 -L/lib/ -L/usr/lib64 -L/usr/lib -L/usr/lib/i386-linux-gnu -lifport -lifcoremt -limf -lsvml -lm -lipgo -lirc -lpthread -lirc_s -ldl'
ac_cv_fc_mangling='lower case, underscore, no extra underscore'
ac_cv_fc_module_ext=mod
ac_cv_fc_module_flag=-I
ac_cv_fc_module_output_flag='-module '
ac_cv_fc_pp_define=-D
ac_cv_fc_pp_srcext_F90=none
ac_cv_fc_pp_srcext_F=none
ac_cv_fc_srcext_f90=none
ac_cv_fortran_dummy_main=none
ac_cv_header_emmintrin_h=yes
ac_cv_header_err_h=yes
ac_cv_header_inttypes_h=yes
ac_cv_header_memory_h=yes
ac_cv_header_mpi_h=yes
ac_cv_header_stdc=yes
ac_cv_header_stdint_h=yes
ac_cv_header_stdlib_h=yes
ac_cv_header_string_h=yes
ac_cv_header_strings_h=yes
ac_cv_header_sys_stat_h=yes
ac_cv_header_sys_types_h=yes
ac_cv_header_unistd_h=yes
ac_cv_header_xmmintrin_h=yes
ac_cv_host=x86_64-unknown-linux-gnu
ac_cv_lib_scotch_scotchfarchinit_=yes
ac_cv_objext=o
ac_cv_path_EGREP='/usr/bin/grep -E'
ac_cv_path_GREP=/usr/bin/grep
ac_cv_prog_CPP='icc -E'
ac_cv_prog_CXXCPP='g++ -E'
ac_cv_prog_ac_ct_CC=icc
ac_cv_prog_ac_ct_CXX=g++
ac_cv_prog_cc_c89=
ac_cv_prog_cc_g=yes
ac_cv_prog_cxx_g=yes
ac_cv_prog_fc_g=yes
ac_cv_prog_fc_v=-v

## ----------------- ##
## Output variables. ##
## ----------------- ##

CC='icc'
CFLAGS='-g -O2'
COND_CUDA5_FALSE=''
COND_CUDA5_TRUE='#'
COND_CUDA6_FALSE=''
COND_CUDA6_TRUE='#'
COND_CUDA_FALSE=''
COND_CUDA_PLUS_FALSE=''
COND_CUDA_PLUS_TRUE='#'
COND_CUDA_TRUE='#'
COND_DEBUG_FALSE=''
COND_DEBUG_TRUE='#'
COND_MPI_FALSE='#'
COND_MPI_TRUE=''
CPP='icc -E'
CPPFLAGS=''
CUDA_CPPFLAGS=''
CUDA_FLAGS=''
CUDA_INC=''
CUDA_LDFLAGS=''
CUDA_LIB=''
CUDA_LIBS=''
CUSTOM_MPI_TYPE='MPI_REAL'
CUSTOM_REAL='SIZE_REAL'
CXX='g++'
CXXCPP='g++ -E'
CXXFLAGS='-g -O2'
DEFS='-DHAVE_CONFIG_H'
ECHO_C=''
ECHO_N='-n'
ECHO_T=''
EGREP='/usr/bin/grep -E'
EXEEXT=''
FC='ifort'
FCENV=''
FCFLAGS='-g'
FCFLAGS_F90=''
FCFLAGS_F=''
FCFLAGS_f90='-module ./obj -I./obj -I. '
FCLIBS=' -L/home/wenyongp/intel/compilers_and_libraries_2020.1.217/linux/mpi/intel64/libfabric/lib -L/home/wenyongp/intel/compilers_and_libraries_2020.1.217/linux/ipp/lib/intel64 -L/home/wenyongp/intel/compilers_and_libraries_2020.1.217/linux/compiler/lib/intel64_lin -L/home/wenyongp/intel/compilers_and_libraries_2020.1.217/linux/mkl/lib/intel64_lin -L/home/wenyongp/intel/compilers_and_libraries_2020.1.217/linux/tbb/lib/intel64/gcc4.8 -L/home/wenyongp/intel/compilers_and_libraries_2020.1.217/linux/daal/lib/intel64_lin -L/home/wenyongp/intel/compilers_and_libraries_2020.1.217/linux/ipp/lib/ia32 -L/home/wenyongp/intel/compilers_and_libraries_2020.1.217/linux/compiler/lib/ia32_lin -L/home/wenyongp/intel/compilers_and_libraries_2020.1.217/linux/mkl/lib/ia32_lin -L/home/wenyongp/intel/compilers_and_libraries_2020.1.217/linux/tbb/lib/ia32/gcc4.8 -L/home/wenyongp/intel/compilers_and_libraries_2020.1.217/linux/daal/lib/ia32_lin -L/home/wenyongp/intel/compilers_and_libraries_2020.1.217/linux/daal/../tbb/lib/ia32_lin/gcc4.4 -L/home/wenyongp/intel/compilers_and_libraries_2020.1.217/linux/daal/../tbb/lib/ia32_lin/gcc4.8 -L/home/wenyongp/intel/compilers_and_libraries_2020.1.217/linux/mpi/intel64/libfabric/lib/../lib/ -L/usr/lib/gcc/x86_64-linux-gnu/9/ -L/usr/lib/gcc/x86_64-linux-gnu/9/../../../x86_64-linux-gnu/ -L/usr/lib/gcc/x86_64-linux-gnu/9/../../../../lib64 -L/usr/lib/gcc/x86_64-linux-gnu/9/../../../../lib/ -L/lib/x86_64-linux-gnu/ -L/lib/../lib64 -L/lib/../lib/ -L/usr/lib/x86_64-linux-gnu/ -L/usr/lib/../lib64 -L/usr/lib/../lib/ -L/home/wenyongp/intel/compilers_and_libraries_2020.1.217/linux/mpi/intel64/libfabric/lib/ -L/home/wenyongp/intel/compilers_and_libraries_2020.1.217/linux/ipp/lib/intel64/ -L/home/wenyongp/intel/compilers_and_libraries_2020.1.217/linux/compiler/lib/intel64_lin/ -L/home/wenyongp/intel/compilers_and_libraries_2020.1.217/linux/mkl/lib/intel64_lin/ -L/home/wenyongp/intel/compilers_and_libraries_2020.1.217/linux/tbb/lib/intel64/gcc4.8/ -L/home/wenyongp/intel/compilers_and_libraries_2020.1.217/linux/daal/lib/intel64_lin/ -L/home/wenyongp/intel/compilers_and_libraries_2020.1.217/linux/ipp/lib/ia32/ -L/home/wenyongp/intel/compilers_and_libraries_2020.1.217/linux/compiler/lib/ia32_lin/ -L/home/wenyongp/intel/compilers_and_libraries_2020.1.217/linux/mkl/lib/ia32_lin/ -L/home/wenyongp/intel/compilers_and_libraries_2020.1.217/linux/tbb/lib/ia32/gcc4.8/ -L/home/wenyongp/intel/compilers_and_libraries_2020.1.217/linux/daal/lib/ia32_lin/ -L/home/wenyongp/intel/compilers_and_libraries_2020.1.217/linux/daal/../tbb/lib/ia32_lin/gcc4.8/ -L/usr/lib/gcc/x86_64-linux-gnu/9/../../../ -L/lib64 -L/lib/ -L/usr/lib64 -L/usr/lib -L/usr/lib/i386-linux-gnu -lifport -lifcoremt -limf -lsvml -lm -lipgo -lirc -lpthread -lirc_s -ldl'
FC_DEFINE='-D'
FC_MODDIR='./obj'
FC_MODEXT='mod'
FC_MODINC='-I'
FC_MODOUT='-module ${ac_empty}'
FLAGS_CHECK='-xHost -fpe0 -ftz -assume buffered_io -assume byterecl -align sequence -std08 -diag-disable 6477 -implicitnone -gen-interfaces -warn all -O3 -check nobounds'
GREP='/usr/bin/grep'
LDFLAGS=''
LEX=''
LEXLIB=''
LEX_OUTPUT_ROOT=''
LIBOBJS=''
LIBS=''
LOCAL_PATH_IS_ALSO_GLOBAL='true'
LTLIBOBJS=''
MPICC='mpicc'
MPIFC='mpif90'
MPILIBS=''
MPI_INC='/home/wenyongp/Programs/Openmpi-4.0.3/include'
MPI_INCLUDES=' -I/home/wenyongp/Programs/Openmpi-4.0.3/include'
NVCC=''
NVCC_PROG=''
OBJEXT='o'
PACKAGE_BUGREPORT='see the wiki'
PACKAGE_NAME='Specfem 2D'
PACKAGE_STRING='Specfem 2D 7.0.0'
PACKAGE_TARNAME='Specfem2D'
PACKAGE_URL=''
PACKAGE_VERSION='7.0.0'
PATH_SEPARATOR=':'
PTHREAD_CC=''
PTHREAD_CFLAGS=''
PTHREAD_LIBS=''
SCOTCH_DIR='./src/meshfem2D/scotch'
SCOTCH_INCLUDEDIR='./src/meshfem2D/scotch/include'
SCOTCH_LIBDIR='./src/meshfem2D/scotch/lib'
SHELL='/bin/bash'
USE_BUNDLED_SCOTCH='0'
YACC=''
YFLAGS=''
ac_ct_CC='icc'
ac_ct_CXX='g++'
ac_ct_FC=''
ac_empty=''
acx_pthread_config=''
bindir='${exec_prefix}/bin'
build='x86_64-unknown-linux-gnu'
build_alias=''
build_cpu='x86_64'
build_os='linux-gnu'
build_vendor='unknown'
datadir='${datarootdir}'
datarootdir='${prefix}/share'
docdir='${datarootdir}/doc/${PACKAGE_TARNAME}'
dvidir='${docdir}'
exec_prefix='${prefix}'
host='x86_64-unknown-linux-gnu'
host_alias=''
host_cpu='x86_64'
host_os='linux-gnu'
host_vendor='unknown'
htmldir='${docdir}'
includedir='${prefix}/include'
infodir='${datarootdir}/info'
libdir='${exec_prefix}/lib'
libexecdir='${exec_prefix}/libexec'
localedir='${datarootdir}/locale'
localstatedir='${prefix}/var'
mandir='${datarootdir}/man'
oldincludedir='/usr/include'
pdfdir='${docdir}'
prefix='/usr/local'
program_transform_name='s,x,x,'
psdir='${docdir}'
sbindir='${exec_prefix}/sbin'
sharedstatedir='${prefix}/com'
sysconfdir='${prefix}/etc'
target_alias=''

## ----------- ##
## confdefs.h. ##
## ----------- ##

/* confdefs.h */
#define PACKAGE_NAME "Specfem 2D"
#define PACKAGE_TARNAME "Specfem2D"
#define PACKAGE_VERSION "7.0.0"
#define PACKAGE_STRING "Specfem 2D 7.0.0"
#define PACKAGE_BUGREPORT "see the wiki"
#define PACKAGE_URL ""
#define FC_FUNC(name,NAME) name ## _
#define FC_FUNC_(name,NAME) name ## _
#define STDC_HEADERS 1
#define HAVE_SYS_TYPES_H 1
#define HAVE_SYS_STAT_H 1
#define HAVE_STDLIB_H 1
#define HAVE_STRING_H 1
#define HAVE_MEMORY_H 1
#define HAVE_STRINGS_H 1
#define HAVE_INTTYPES_H 1
#define HAVE_STDINT_H 1
#define HAVE_UNISTD_H 1
#define HAVE_EMMINTRIN 1
#define HAVE_XMMINTRIN 1
#define HAVE_ERR 1
#define HAVE_SCOTCH 1

configure: exit 0
